140
/home/androo/local/code/github.androomerrill/repos/scikit-nano/doc/source/tutorial/examples/notebooks/data/10,5_unit_cell.xyz
  C     4.85152947     1.82080947     4.56524389
  C     4.19229182     3.04587830     4.29670013
  C     3.58105740     3.74549239     5.37087516
  C     2.45556735     4.56320877     5.10233140
  C     4.99521474     1.37859167     2.14835006
  C     4.44844531     2.65782235     1.87980631
  C     3.90238446     3.40941063     2.95398134
  C     2.85472484     4.32472328     2.68543758
  C     2.03663908     4.76495400     3.75961261
  C     0.69559110     5.13505972     3.49106885
  C    -0.23248765     5.17673979     4.56524389
  C    -1.60131299     4.92833461     4.29670013
  C    -2.45556735     4.56320877     5.37087516
  C    -3.58105740     3.74549239     5.10233140
  C     5.09868148     0.92527427    -0.26854376
  C     4.66878254     2.24836717    -0.53708752
  C     4.19229182     3.04587830     0.53708752
  C     3.23089776     4.05141765     0.26854376
  C     2.45556735     4.56320877     1.34271879
  C     1.15309406     5.05203518     1.07417503
  C     0.23248765     5.17673979     2.14835006
  C    -1.15309406     5.05203518     1.87980631
  C    -2.03663908     4.76495400     2.95398134
  C    -3.23089776     4.05141765     2.68543758
  C    -3.90238446     3.40941063     3.75961261
  C    -4.66878254     2.24836717     3.49106885
  C    -4.99521474     1.37859167     4.56524389
  C    -5.18195767     0.00000000     4.29670013
  C    -5.09868148    -0.92527427     5.37087516
  C    -4.66878254    -2.24836717     5.10233140
  C     5.16109663     0.46450710    -2.68543758
  C     4.85152947     1.82080947    -2.95398134
  C     4.44844531     2.65782235    -1.87980631
  C     3.58105740     3.74549239    -2.14835006
  C     2.85472484     4.32472328    -1.07417503
  C     1.60131299     4.92833461    -1.34271879
  C     0.69559110     5.13505972    -0.26854376
  C    -0.69559110     5.13505972    -0.53708752
  C    -1.60131299     4.92833461     0.53708752
  C    -2.85472484     4.32472328     0.26854376
  C    -3.58105740     3.74549239     1.34271879
  C    -4.44844531     2.65782235     1.07417503
  C    -4.85152947     1.82080947     2.14835006
  C    -5.16109663     0.46450710     1.87980631
  C    -5.16109663    -0.46450710     2.95398134
  C    -4.85152947    -1.82080947     2.68543758
  C    -4.44844531    -2.65782235     3.75961261
  C    -3.58105740    -3.74549239     3.49106885
  C    -2.85472484    -4.32472328     4.56524389
  C    -1.60131299    -4.92833461     4.29670013
  C    -0.69559110    -5.13505972     5.37087516
  C     0.69559110    -5.13505972     5.10233140
  C     5.18195767     0.00000000    -5.10233140
  C     4.99521474     1.37859167    -5.37087516
  C     4.66878254     2.24836717    -4.29670013
  C     3.90238446     3.40941063    -4.56524389
  C     3.23089776     4.05141765    -3.49106885
  C     2.03663908     4.76495400    -3.75961261
  C     1.15309406     5.05203518    -2.68543758
  C    -0.23248765     5.17673979    -2.95398134
  C    -1.15309406     5.05203518    -1.87980631
  C    -2.45556735     4.56320877    -2.14835006
  C    -3.23089776     4.05141765    -1.07417503
  C    -4.19229182     3.04587830    -1.34271879
  C    -4.66878254     2.24836717    -0.26854376
  C    -5.09868148     0.92527427    -0.53708752
  C    -5.18195767     0.00000000     0.53708752
  C    -4.99521474    -1.37859167     0.26854376
  C    -4.66878254    -2.24836717     1.34271879
  C    -3.90238446    -3.40941063     1.07417503
  C    -3.23089776    -4.05141765     2.14835006
  C    -2.03663908    -4.76495400     1.87980631
  C    -1.15309406    -5.05203518     2.95398134
  C     0.23248765    -5.17673979     2.68543758
  C     1.15309406    -5.05203518     3.75961261
  C     2.45556735    -4.56320877     3.49106885
  C     3.23089776    -4.05141765     4.56524389
  C     4.19229182    -3.04587830     4.29670013
  C     4.66878254    -2.24836717     5.37087516
  C     5.09868148    -0.92527427     5.10233140
  C     1.60131299     4.92833461    -5.10233140
  C     0.23248765     5.17673979    -5.37087516
  C    -0.69559110     5.13505972    -4.29670013
  C    -2.03663908     4.76495400    -4.56524389
  C    -2.85472484     4.32472328    -3.49106885
  C    -3.90238446     3.40941063    -3.75961261
  C    -4.44844531     2.65782235    -2.68543758
  C    -4.99521474     1.37859167    -2.95398134
  C    -5.16109663     0.46450710    -1.87980631
  C    -5.09868148    -0.92527427    -2.14835006
  C    -4.85152947    -1.82080947    -1.07417503
  C    -4.19229182    -3.04587830    -1.34271879
  C    -3.58105740    -3.74549239    -0.26854376
  C    -2.45556735    -4.56320877    -0.53708752
  C    -1.60131299    -4.92833461     0.53708752
  C    -0.23248765    -5.17673979     0.26854376
  C     0.69559110    -5.13505972     1.34271879
  C     2.03663908    -4.76495400     1.07417503
  C     2.85472484    -4.32472328     2.14835006
  C     3.90238446    -3.40941063     1.87980631
  C     4.44844531    -2.65782235     2.95398134
  C     4.99521474    -1.37859167     2.68543758
  C     5.16109663    -0.46450710     3.75961261
  C     5.09868148     0.92527427     3.49106885
  C    -4.19229182     3.04587830    -5.10233140
  C    -4.85152947     1.82080947    -5.37087516
  C    -5.09868148     0.92527427    -4.29670013
  C    -5.16109663    -0.46450710    -4.56524389
  C    -4.99521474    -1.37859167    -3.49106885
  C    -4.44844531    -2.65782235    -3.75961261
  C    -3.90238446    -3.40941063    -2.68543758
  C    -2.85472484    -4.32472328    -2.95398134
  C    -2.03663908    -4.76495400    -1.87980631
  C    -0.69559110    -5.13505972    -2.14835006
  C     0.23248765    -5.17673979    -1.07417503
  C     1.60131299    -4.92833461    -1.34271879
  C     2.45556735    -4.56320877    -0.26854376
  C     3.58105740    -3.74549239    -0.53708752
  C     4.19229182    -3.04587830     0.53708752
  C     4.85152947    -1.82080947     0.26854376
  C     5.09868148    -0.92527427     1.34271879
  C     5.16109663     0.46450710     1.07417503
  C    -4.19229182    -3.04587830    -5.10233140
  C    -3.23089776    -4.05141765    -5.37087516
  C    -2.45556735    -4.56320877    -4.29670013
  C    -1.15309406    -5.05203518    -4.56524389
  C    -0.23248765    -5.17673979    -3.49106885
  C     1.15309406    -5.05203518    -3.75961261
  C     2.03663908    -4.76495400    -2.68543758
  C     3.23089776    -4.05141765    -2.95398134
  C     3.90238446    -3.40941063    -1.87980631
  C     4.66878254    -2.24836717    -2.14835006
  C     4.99521474    -1.37859167    -1.07417503
  C     5.18195767     0.00000000    -1.34271879
  C     1.60131299    -4.92833461    -5.10233140
  C     2.85472484    -4.32472328    -5.37087516
  C     3.58105740    -3.74549239    -4.29670013
  C     4.44844531    -2.65782235    -4.56524389
  C     4.85152947    -1.82080947    -3.49106885
  C     5.16109663    -0.46450710    -3.75961261
